LAMMPS (3 Mar 2020)

# ----------------- Init Section -----------------

include "system.in.init"
            units           real
            atom_style      full
            boundary        p p p
            bond_style      harmonic
            angle_style     harmonic
            pair_style      lj/cut/coul/long 12.0 13.0
            pair_modify     mix arithmetic
            dihedral_style  harmonic
            kspace_style    pppm 1.0e-5
            kspace_modify   gewald 0.29

# ----------------- Atom Definition Section -----------------

read_data "system.data"
  orthogonal box = (-1 -1 -1) to (31 31 101)
  reading atoms ...
  6031 atoms
  scanning bonds ...
  scanning angles ...
  reading bonds ...
  1802 bonds
  reading angles ...
  901 angles

# ----------------- Settings Section -----------------

include "system.in.settings"

        #     atom_id mass
        mass 1  1.0080
        mass 2 15.9994

        #           atom_i       atom_j       epsilon   sigma
        pair_coeff 1      1      0.000      0.000
        pair_coeff 2      2      0.1553     3.5533
        pair_coeff 1      2      0.000      0.000

        #           bond_id     k_harmonic      r0
        bond_coeff 1    1000.0           1.0

        #            angle_id    k_harmonic     theta0
        angle_coeff 1  1000.0          109.47

        group gSPCE type 1 2
2703 atoms in group gSPCE
        group hyd type 1
1802 atoms in group hyd
        group oxy type 2
901 atoms in group oxy

        fix fShakeSPCE gSPCE shake 0.0001 10 100 b 1 a 1
  find clusters CPU = 0.0008688 secs

        #     atom_id mass
        mass  3  12.0107

        # These Lennard-Jones parameters come from
        #  R. Saito, R. Matsuo, T. Kimura, G. Dresselhaus, M.S. Dresselhaus,
        #  Chem Phys Lett, 348:187 (2001)
        pair_coeff  3      3     0.068443   3.407

        # --- We must eventually specify the interactions between the atoms ---
        # --- in different molecule types (graphene-water interactions).    ---
        # (See Laurent Joly, J. Chem. Phys. 135(21):214705 (2011) for details
pair_coeff 2 3 0.114 3.28
pair_coeff 1 3 0.0 3.28

        # Define a group consisting of only carbon atoms in graphene molecules
        group gGraphene type 3
3328 atoms in group gGraphene

        # Only the gGraphene atoms are immobile.
        group mobile subtract all gGraphene
2703 atoms in group mobile

        # Use "neigh_modify" to turn off calculation of interactions between immobilized
        # atoms. (Note: group "gGraphene" was defined in the file "system.insettings")
        neigh_modify exclude group gGraphene gGraphene

# ----------------- Output Section -----------------

include "system.in.output"
     thermo 100
     dump 1 all custom 100 dump.lammpstrj id mol type x y z ix iy iz

# ----------------- Run Section -----------------

include "system.in.run"

# 速度の割り当て
velocity   all create 298.0 4928459
run 0
PPPM initialization ...
  G vector (1/distance) = 0.29
  grid = 24 24 60
  stencil order = 5
  estimated absolute RMS force accuracy = 0.00224203
  estimated relative force accuracy = 6.75181e-06
  3d grid and FFT values/proc = 35557 17280
  update every 1 steps, delay 10 steps, check yes
SHAKE stats (type/ave/delta) on step 0
Step Temp E_pair E_mol TotEng Press
0          298    50706.618            0    55262.614    148199.65
Loop time of 3.75e-06 on 2 procs for 0 steps with 6031 atoms

velocity   all scale 298.0

timestep 1.0  # fs

neigh_modify every 1 delay 0 check yes

#　制御に用いる変数(QA)
variable          step equal step #ステップ数
variable          density equal density #密度
variable          temp equal temp　#温度
variable          etotal equal etotal #総エネルギー
variable          pxx equal pxx #圧力
variable          pyy equal pyy
variable          pzz equal pzz
variable          lx equal lx　#boxの大きさ
variable          ly equal ly
variable          lz equal lz
variable          zlo equal zlo　#boxの境界
variable          zhi equal zhi
variable          xlo equal xlo
variable          xhi equal xhi
variable          ylo equal ylo
variable          yhi equal yhi
variable          pe equal pe　#ポテンシャルエネルギー

# region作成
#region top plane 0 0 100 0 0 -1 units box
#region top plane 0 0 100 0 0 -1 units lattice
#fix wall all wall/region top lj93 0.0 0.0 1.0
# Solvent(water) evapolation region setting (top 10% box region)
region evapRegion block -1 31 -1 31 89.5 99.5

# Solvent evapolation (30 atoms = 10 water molecules per 1000 steps)
#fix evp mobile evaporate 1000 30 evapRegion 49892  molecule yes

# temp of mobile
compute myTemp mobile temp
compute_modify myTemp dynamic/dof yes
thermo_style custom step temp c_myTemp pe etotal press vol atoms

# -- run protocols ---

#fix 1 mobile npt temp 298.0 298.0 100.0 iso 1.0 1.0 1000.0
# run 1000000  # 1ns
#unfix 1

#--- nvt initialization 298K/50ps
fix 1 mobile nvt temp 298.0 298.0 100.0
 run 50000  # 50ps
PPPM initialization ...
  G vector (1/distance) = 0.29
  grid = 24 24 60
  stencil order = 5
  estimated absolute RMS force accuracy = 0.00224203
  estimated relative force accuracy = 6.75181e-06
  3d grid and FFT values/proc = 35557 17280
SHAKE stats (type/ave/delta) on step 0
Step Temp c_myTemp PotEng TotEng Press Volume Atoms
0          298    375.53106    50707.819    55263.815     148203.1       104448     6031
Averages over the last 251 of 501 rows, steps 25000 to 50000:
Temp c_myTemp PotEng TotEng Press Volume Atoms
270.926 298.429 -4747.72 -605.641 1031.14 104448 6031
Loop time of 1900.12 on 2 procs for 50000 steps with 6031 atoms

unfix 1

#---- nvt ramp temperature to 373K/50ps
fix 2 mobile nvt temp 298.0 373.0 100.0
 run 50000  # 50ps
PPPM initialization ...
  G vector (1/distance) = 0.29
  grid = 24 24 60
  stencil order = 5
  estimated absolute RMS force accuracy = 0.00224203
  estimated relative force accuracy = 6.75181e-06
  3d grid and FFT values/proc = 35557 17280
SHAKE stats (type/ave/delta) on step 50000
Step Temp c_myTemp PotEng TotEng Press Volume Atoms
50000    273.27208    305.10935   -4810.0319   -632.09127    998.54401       104448     6031
Averages over the last 175 of 349 rows, steps 67400 to 84800:
Temp c_myTemp PotEng TotEng Press Volume Atoms
284.586 337.33 -4230.67 120.247 1038.61 104448 6031
