LAMMPS (3 Mar 2020)

# ----------------- Init Section -----------------

include "system.in.init"
            units           real
            atom_style      full
            boundary        p p p
            bond_style      harmonic
            angle_style     harmonic
            pair_style      lj/cut/coul/long 12.0 13.0
            pair_modify     mix arithmetic
            dihedral_style  harmonic
            kspace_style    pppm 1.0e-5
            kspace_modify   gewald 0.29

# ----------------- Atom Definition Section -----------------

read_data "system.data"
  orthogonal box = (-1 -1 -1) to (31 31 101)
  reading atoms ...
<<<<<<< HEAD
  3599 atoms
=======
  4047 atoms
>>>>>>> 470a4b6fcba75a8582aa87016a1e1942d472a80a
  scanning bonds ...
  scanning angles ...
  reading bonds ...
  1802 bonds
  reading angles ...
  901 angles
<<<<<<< HEAD
=======
>>>>>>> 470a4b6fcba75a8582aa87016a1e1942d472a80a

# ----------------- Settings Section -----------------

include "system.in.settings"

        #     atom_id mass
        mass 1  1.0080
        mass 2 15.9994

        #           atom_i       atom_j       epsilon   sigma
        pair_coeff 1      1      0.000      0.000
        pair_coeff 2      2      0.1553     3.5533
        pair_coeff 1      2      0.000      0.000

        #           bond_id     k_harmonic      r0
        bond_coeff 1    1000.0           1.0

        #            angle_id    k_harmonic     theta0
        angle_coeff 1  1000.0          109.47

        group gSPCE type 1 2
2703 atoms in group gSPCE
        group hyd type 1
1802 atoms in group hyd
        group oxy type 2
901 atoms in group oxy

        fix fShakeSPCE gSPCE shake 0.0001 10 100 b 1 a 1
<<<<<<< HEAD
  find clusters CPU = 0.0002991 secs
=======
  find clusters CPU = 0.0003513 secs
>>>>>>> 470a4b6fcba75a8582aa87016a1e1942d472a80a

        #     atom_id mass
        mass  3  12.0107

        # These Lennard-Jones parameters come from
        #  R. Saito, R. Matsuo, T. Kimura, G. Dresselhaus, M.S. Dresselhaus,
        #  Chem Phys Lett, 348:187 (2001)
        pair_coeff  3      3     0.068443   3.407

        # --- We must eventually specify the interactions between the atoms ---
        # --- in different molecule types (graphene-water interactions).    ---
        # (See Laurent Joly, J. Chem. Phys. 135(21):214705 (2011) for details
pair_coeff 2 3 0.114 3.28
pair_coeff 1 3 0.0 3.28

        # Define a group consisting of only carbon atoms in graphene molecules
        group gGraphene type 3
<<<<<<< HEAD
896 atoms in group gGraphene
=======
1344 atoms in group gGraphene
>>>>>>> 470a4b6fcba75a8582aa87016a1e1942d472a80a

        # Only the gGraphene atoms are immobile.
        group mobile subtract all gGraphene
2703 atoms in group mobile

        # Use "neigh_modify" to turn off calculation of interactions between immobilized
        # atoms. (Note: group "gGraphene" was defined in the file "system.insettings")
        neigh_modify exclude group gGraphene gGraphene

# ----------------- Output Section -----------------

include "system.in.output"
     thermo 100
     dump 1 all custom 100 dump.lammpstrj id mol type x y z ix iy iz

# ----------------- Run Section -----------------

include "system.in.run"

# 速度の割り当て
<<<<<<< HEAD
velocity   all create 298.0 4928459
run 0
PPPM initialization ...
  G vector (1/distance) = 0.29
  grid = 25 25 60
  stencil order = 5
  estimated absolute RMS force accuracy = 0.00244257
  estimated relative force accuracy = 7.35573e-06
  3d grid and FFT values/proc = 22528 9375
  update every 1 steps, delay 10 steps, check yes
SHAKE stats (type/ave/delta) on step 0
Step Temp E_pair E_mol TotEng Press
0          298    49474.111            0    51869.806    143405.35
Loop time of 2.5e-06 on 4 procs for 0 steps with 3599 atoms

velocity   all scale 298.0

timestep 1.0  # fs
=======
velocity         all create 298.0 4928459

timestep 1.0

thermo_style custom step temp pe etotal press vol atoms
>>>>>>> 470a4b6fcba75a8582aa87016a1e1942d472a80a

neigh_modify every 1 delay 0 check yes

#　制御に用いる変数(QA)
variable          step equal step #ステップ数
variable          density equal density #密度
variable          temp equal temp　#温度
variable          etotal equal etotal #総エネルギー
variable          pxx equal pxx #圧力
variable          pyy equal pyy
variable          pzz equal pzz
variable          lx equal lx　#boxの大きさ
variable          ly equal ly
variable          lz equal lz
variable          zlo equal zlo　#boxの境界
variable          zhi equal zhi
variable          xlo equal xlo
variable          xhi equal xhi
variable          ylo equal ylo
variable          yhi equal yhi
variable          pe equal pe　#ポテンシャルエネルギー

<<<<<<< HEAD
# region作成
#region top plane 0 0 100 0 0 -1 units box
#region top plane 0 0 100 0 0 -1 units lattice
#fix wall all wall/region top lj93 0.0 0.0 1.0
# Solvent(water) evapolation region setting (top 10% box region)
region evapRegion block -1 31 -1 31 89.5 99.5

# Solvent evapolation (30 atoms = 10 water molecules per 1000 steps)
#fix evp mobile evaporate 1000 30 evapRegion 49892  molecule yes

# temp of mobile
compute myTemp mobile temp
compute_modify myTemp dynamic/dof yes
thermo_style custom step temp c_myTemp pe etotal press vol atoms

# -- run protocols ---

#fix 1 mobile npt temp 298.0 298.0 100.0 iso 1.0 1.0 1000.0
# run 1000000  # 1ns
#unfix 1

#--- nvt initialization 298K/50ps
fix 1 mobile nvt temp 298.0 298.0 100.0
 run 50000  # 50ps
=======
#change_box all boundary p p f

# 削除平面作成
# ? 範囲指定
#region top plane 0 0 100 0 0 -1 units box
#region top plane 0 0 100 0 0 -1 units lattice
#fix wall all wall/region top lj93 0.0 0.0 1.0

# Solvent(water) evapolation region setting (top 10% box region)
region top block -1 31 -1 31 90 101

# Solvent evapolation (30 atoms = 10 water molecules per 1000 steps)
fix evp mobile evaporate 1000 30 top 49892  molecule yes
compute myTemp mobile temp
compute_modify myTemp dynamic/dof yes

#　? 削除
#delete_atoms region top compress yes

# -- run protocols ---

fix 1 mobile npt temp 298.0 298.0 100.0 iso 1.0 1.0 1000.0
 run 10000
>>>>>>> 470a4b6fcba75a8582aa87016a1e1942d472a80a
PPPM initialization ...
  G vector (1/distance) = 0.29
  grid = 25 25 60
  stencil order = 5
<<<<<<< HEAD
  estimated absolute RMS force accuracy = 0.00244257
  estimated relative force accuracy = 7.35573e-06
  3d grid and FFT values/proc = 22528 9375
SHAKE stats (type/ave/delta) on step 0
Step Temp c_myTemp PotEng TotEng Press Volume Atoms
0          298    333.58169    49475.304    51870.999    143408.78       104448     3599
Averages over the last 251 of 501 rows, steps 25000 to 50000:
Temp c_myTemp PotEng TotEng Press Volume Atoms
274.288 298.073 -4761.68 -2556.61 218.147 104448 3599
Loop time of 674.383 on 4 procs for 50000 steps with 3599 atoms

=======
  estimated absolute RMS force accuracy = 0.00230341
  estimated relative force accuracy = 6.93666e-06
  3d grid and FFT values/proc = 22528 9375
  update every 1 steps, delay 0 steps, check yes
SHAKE stats (type/ave/delta) on step 0
Step Temp PotEng TotEng Press Volume Atoms
0          298    49359.452    52153.097    143452.48       104448     4047
Averages over the last 51 of 101 rows, steps 5000 to 10000:
Temp PotEng TotEng Press Volume Atoms
297.17 -3347.05 -561.189 177.907 210698 4043.29
Loop time of 130.235 on 4 procs for 10000 steps with 4038 atoms

unfix 1

fix 2 mobile nvt temp 298.0 298.0 100.0
 run 20000
PPPM initialization ...
  G vector (1/distance) = 0.29
  grid = 32 32 75
  stencil order = 5
  estimated absolute RMS force accuracy = 0.00211898
  estimated relative force accuracy = 6.38125e-06
  3d grid and FFT values/proc = 38025 19456
SHAKE stats (type/ave/delta) on step 10000
Step Temp PotEng TotEng Press Volume Atoms
10000    296.76227   -3142.4821   -365.74793    128.02279    250032.89     4038
Averages over the last 101 of 201 rows, steps 20000 to 30000:
Temp PotEng TotEng Press Volume Atoms
269.876 -4011.02 -1485.85 150.754 250033 4022.35
Loop time of 196.756 on 4 procs for 20000 steps with 4017 atoms

unfix 2

#rdfの計算
#compute	myRDF oxy rdf 50 cutoff 13.0
#fix		fout2 oxy ave/time 1000 10 10000 c_myRDF[*] file tmp.rdf mode vector

fix 3 mobile nve
 run 10000
PPPM initialization ...
  G vector (1/distance) = 0.29
  grid = 32 32 75
  stencil order = 5
  estimated absolute RMS force accuracy = 0.00210795
  estimated relative force accuracy = 6.34804e-06
  3d grid and FFT values/proc = 38025 19456
SHAKE stats (type/ave/delta) on step 30000
Step Temp PotEng TotEng Press Volume Atoms
30000     273.2468   -4162.8258   -1617.5233    183.01059    250032.89     4017
Averages over the last 51 of 101 rows, steps 35000 to 40000:
Temp PotEng TotEng Press Volume Atoms
268.448 -4123.59 -1622.98 148.688 250033 4009.71
Loop time of 130.746 on 4 procs for 10000 steps with 4005 atoms

>>>>>>> 470a4b6fcba75a8582aa87016a1e1942d472a80a

<<<<<<< HEAD

unfix 1

#---- nvt ramp temperature to 373K/50ps
fix 2 mobile nvt temp 298.0 373.0 100.0
 run 50000  # 50ps
PPPM initialization ...
  G vector (1/distance) = 0.29
  grid = 25 25 60
  stencil order = 5
  estimated absolute RMS force accuracy = 0.00244257
  estimated relative force accuracy = 7.35573e-06
  3d grid and FFT values/proc = 22528 9375
SHAKE stats (type/ave/delta) on step 50000
Step Temp c_myTemp PotEng TotEng Press Volume Atoms
50000    272.76272    295.78882   -4772.0252    -2579.219    204.33182       104448     3599
Averages over the last 251 of 501 rows, steps 75000 to 100000:
Temp c_myTemp PotEng TotEng Press Volume Atoms
311.761 354.189 -4035.34 -1529.02 241.972 104448 3599
Loop time of 682.861 on 4 procs for 50000 steps with 3599 atoms

unfix 2

#---- nvt keep 373K/50ps
fix 3 mobile nvt temp 373.0 373.0 100.0
 run 50000  # 50ps
PPPM initialization ...
  G vector (1/distance) = 0.29
  grid = 25 25 60
  stencil order = 5
  estimated absolute RMS force accuracy = 0.00244257
  estimated relative force accuracy = 7.35573e-06
  3d grid and FFT values/proc = 22528 9375
SHAKE stats (type/ave/delta) on step 100000
Step Temp c_myTemp PotEng TotEng Press Volume Atoms
100000     324.4955    373.25873   -3735.1266   -1126.4279    232.90275       104448     3599
Averages over the last 251 of 501 rows, steps 125000 to 150000:
Temp c_myTemp PotEng TotEng Press Volume Atoms
324.283 372.941 -3670.37 -1063.37 237.972 104448 3599
Loop time of 541.208 on 4 procs for 50000 steps with 3599 atoms

unfix 3

#fix 1 mobile nvt temp 298.0 298.0 100.0
# run 1000000  # 1ns
#unfix 1

#rdfの計算
#compute	myRDF oxy rdf 50 cutoff 13.0
#fix		fout2 oxy ave/time 1000 10 10000 c_myRDF[*] file tmp.rdf mode vector

#fix 3 mobile nve
# run 10000
#unfix 3

=======

unfix 3

>>>>>>> 470a4b6fcba75a8582aa87016a1e1942d472a80a
write_restart   system.restart
PPPM initialization ...
  G vector (1/distance) = 0.29
<<<<<<< HEAD
  grid = 25 25 60
  stencil order = 5
  estimated absolute RMS force accuracy = 0.00244257
  estimated relative force accuracy = 7.35573e-06
  3d grid and FFT values/proc = 22528 9375
=======
  grid = 32 32 75
  stencil order = 5
  estimated absolute RMS force accuracy = 0.00210163
  estimated relative force accuracy = 6.329e-06
  3d grid and FFT values/proc = 38025 19456
>>>>>>> 470a4b6fcba75a8582aa87016a1e1942d472a80a

# ----------------- Run Section -----------------

# The lines above define the system you want to simulate.
# What you do next is up to you.
# Typically a user would minimize and equilibrate
# the system using commands similar to the following:
#  ----   examples   ----
#
#  -- minimize --
# minimize 1.0e-5 1.0e-7 1000 10000
# (Note: Some fixes, for example "shake", interfere with the minimize command,
#        You can use the "unfix" command to disable them before minimization.)
#  -- declare time step for normal MD --
# timestep 1.0
#  -- run at constant pressure (Nose-Hoover)--
# fix   fxnpt all npt temp 300.0 300.0 100.0 iso 1.0 1.0 1000.0 drag 1.0
#  -- ALTERNATELY, run at constant volume (Nose-Hoover) --
# fix   fxnvt all nvt temp 300.0 300.0 500.0 tchain 1
#  -- ALTERNATELY, run at constant volume using Langevin dynamics. --
#  -- (This is good for sparse CG polymers in implicit solvent.)   --
# fix fxLAN all langevin 300.0 300.0 5000 48279
# fix fxNVE all nve  #(<--needed by fix langevin)
#  -- Now, finally run the simulation --
# run   50000
#  ---- (end of examples) ----

<<<<<<< HEAD
=======
>>>>>>> 470a4b6fcba75a8582aa87016a1e1942d472a80a
