LAMMPS (3 Mar 2020)

# ----------------- Init Section -----------------

include "system.in.init"
            units real
            atom_style      full
            bond_style      harmonic
            angle_style     harmonic
	    pair_style	    lj/cut/coul/long 12.0 13.0
	    pair_modify	    mix arithmetic
            dihedral_style  harmonic
	    kspace_style    pppm 1.0e-5
#	    kspace_modify   gewald 0.29
   variable cutoff equal 13.0 # Angstroms
   boundary p p p
#   boundary p p s

# ----------------- Atom Definition Section -----------------

read_data "system.data"
  orthogonal box = (-1 -1 -1) to (31 31 101)
  reading atoms ...
  2703 atoms
  scanning bonds ...
  scanning angles ...
  reading bonds ...
  1802 bonds
  reading angles ...
  901 angles

# ----------------- Settings Section -----------------

include "system.in.settings"

       	#     atom_id mass
	mass 1  1.0080
        mass 2 15.9994

	#           atom_i       atom_j       epsilon	sigma
        pair_coeff 1      1      0.000 	0.000
	pair_coeff 2      2      0.1553 	3.5533
	pair_coeff 1      2      0.000 	0.000

	#           bond_id     k_harmonic	r0
        bond_coeff 1    1000.0		1.0

	#            angle_id    k_harmonic	theta0
        angle_coeff 1	1000.0		109.47

        group gSPCE type 1 2
2703 atoms in group gSPCE
	group hyd type 1
1802 atoms in group hyd
	group oxy type 2
901 atoms in group oxy

	fix fShakeSPCE gSPCE shake 0.0001 10 100 b 1 a 1
  find clusters CPU = 0.0003788 secs

# ----------------- Output Section -----------------

include "system.in.output"
     thermo 100
#     dump 1 all atom 100 dump.lammpstrj
     dump 1 all custom 100 dump.lammpstrj id mol type x y z ix iy iz

# ----------------- Run Section -----------------

include "system.in.run"

# 速度の割り当て
velocity         all create 298.0 4928459

timestep 1.0

thermo_style custom step temp pe etotal press vol atoms

neigh_modify every 1 delay 0 check yes

#　制御に用いる変数(QA)
variable          step equal step #ステップ数
variable          density equal density #密度
variable          temp equal temp　#温度
variable          etotal equal etotal #総エネルギー
variable          pxx equal pxx #圧力
variable          pyy equal pyy
variable          pzz equal pzz
variable          lx equal lx　#boxの大きさ
variable          ly equal ly
variable          lz equal lz
variable          zlo equal zlo　#boxの境界
variable          zhi equal zhi
variable          xlo equal xlo
variable          xhi equal xhi
variable          ylo equal ylo
variable          yhi equal yhi
variable          pe equal pe　#ポテンシャルエネルギー

#change_box all boundary p p f

# 削除平面作成
# ? 範囲指定
#region top plane 0 0 100 0 0 -1 units box
#region top plane 0 0 100 0 0 -1 units lattice
#fix wall all wall/region top lj93 0.0 0.0 1.0

# Solvent(water evapolation) region setting (top 10% box region)
region top block -1 31 -1 31 90 101

# Solvent evaporation (30 atoms = 10 water molecules per 1000 steps)
fix evp all evaporate 1000 30 top 49892  molecule yes
compute myTemp all temp
compute_modify myTemp dynamic/dof yes

#　? 削除
#delete_atoms region top compress yes

fix 1 all npt temp 298.0 298.0 100.0 iso 1.0 1.0 1000.0
 run 10000
PPPM initialization ...
  G vector (1/distance) = 0.223082
  grid = 20 20 45
  stencil order = 5
  estimated absolute RMS force accuracy = 0.00334909
  estimated relative force accuracy = 1.00857e-05
  3d grid and FFT values/proc = 7803 2400
  update every 1 steps, delay 0 steps, check yes
SHAKE stats (type/ave/delta) on step 0
Step Temp PotEng TotEng Press Volume Atoms
0          298    47933.208    49533.003    138697.44       104448     2703
Averages over the last 51 of 101 rows, steps 5000 to 10000:
Temp PotEng TotEng Press Volume Atoms
297.244 -3678.53 -2082.8 -17.1197 101670 2491.24
Loop time of 68.0098 on 8 procs for 10000 steps with 2403 atoms

unfix 1

fix 2 all nvt temp 298.0 298.0 100.0
 run 20000
PPPM initialization ...
  G vector (1/distance) = 0.223921
  grid = 20 20 45
  stencil order = 5
  estimated absolute RMS force accuracy = 0.00302504
  estimated relative force accuracy = 9.10982e-06
  3d grid and FFT values/proc = 7803 2400
SHAKE stats (type/ave/delta) on step 10000
Step Temp PotEng TotEng Press Volume Atoms
10000     333.6774   -3529.4527   -1937.0518    63.855006    100187.94     2403
Averages over the last 101 of 201 rows, steps 20000 to 30000:
Temp PotEng TotEng Press Volume Atoms
297.252 -3336.23 -1917.66 -8.09029 100188 2219.32
Loop time of 108.818 on 8 procs for 20000 steps with 2181 atoms

unfix 2

#rdfの計算
#compute	myRDF oxy rdf 50 cutoff 13.0
#fix		fout2 oxy ave/time 1000 10 10000 c_myRDF[*] file tmp.rdf mode vector

fix 3 all nve
 run 10000
PPPM initialization ...
  G vector (1/distance) = 0.223914
  grid = 20 20 45
  stencil order = 5
  estimated absolute RMS force accuracy = 0.00288235
  estimated relative force accuracy = 8.6801e-06
  3d grid and FFT values/proc = 7803 2400
SHAKE stats (type/ave/delta) on step 30000
Step Temp PotEng TotEng Press Volume Atoms
30000     334.5337    -3205.461   -1756.5564   -21.270782    100187.94     2181
Averages over the last 51 of 101 rows, steps 35000 to 40000:
Temp PotEng TotEng Press Volume Atoms
320.65 -3153.32 -1764.55 -25.7549 100188 2136.29
Loop time of 48.4866 on 8 procs for 10000 steps with 2121 atoms

unfix 3

write_restart   water.restart
PPPM initialization ...
  G vector (1/distance) = 0.223912
  grid = 20 20 45
  stencil order = 5
  estimated absolute RMS force accuracy = 0.00284257
  estimated relative force accuracy = 8.56031e-06
  3d grid and FFT values/proc = 7803 2400

# ----------------- Run Section -----------------

# The lines above define the system you want to simulate.
# What you do next is up to you.
# Typically a user would minimize and equilibrate
# the system using commands similar to the following:
#  ----   examples   ----
#
#  -- minimize --
# minimize 1.0e-5 1.0e-7 1000 10000
# (Note: Some fixes, for example "shake", interfere with the minimize command,
#        You can use the "unfix" command to disable them before minimization.)
#  -- declare time step for normal MD --
# timestep 1.0
#  -- run at constant pressure (Nose-Hoover)--
# fix   fxnpt all npt temp 300.0 300.0 100.0 iso 1.0 1.0 1000.0 drag 1.0
#  -- ALTERNATELY, run at constant volume (Nose-Hoover) --
# fix   fxnvt all nvt temp 300.0 300.0 500.0 tchain 1
#  -- ALTERNATELY, run at constant volume using Langevin dynamics. --
#  -- (This is good for sparse CG polymers in implicit solvent.)   --
# fix fxLAN all langevin 300.0 300.0 5000 48279
# fix fxNVE all nve  #(<--needed by fix langevin)
#  -- Now, finally run the simulation --
# run   50000
#  ---- (end of examples) ----
